35
peptide_to_xyz
C -1.153 -1.004 0.21
C -2.245 0.055 0.116
C -3.564 -0.663 0.402
S -5.019 0.432 0.517
N -2.25 0.676 -1.195
H -5.341 0.436 -0.779
H -3.488 -1.161 1.361
H -3.754 -1.418 -0.354
H -2.05 0.753 0.928
H -1.51 1.364 -1.262
H -3.112 1.181 -1.324
O -1.42071435962 -2.17916535233 0.408978431828
N 0.0992608421027 -0.56134891411 0.0157197912885
H 0.202816882029 0.429284147104 -0.127501312686
H 2.06502900944 -0.952336580413 -0.496852308119
H 0.971039873595 -2.34175134983 -0.592630015267
O 2.60768344926 -1.29200517996 1.94010838123
C 1.66586341365 -1.83421894322 1.38804565339
C 1.23336917111 -1.45598575998 -0.0218729220079
H 0.0139428508203 -2.97659658894 1.53441084268
H 0.56669038419 -3.99156188142 3.6272879579
H 2.08913123191 -3.08361886553 3.64504591661
O -0.795937771661 -2.13082417482 4.6599494204
C 0.319187411591 -1.95885371342 4.18790706416
C 1.03374198885 -3.04251300722 3.39929227159
N 0.894012613713 -2.76527598711 1.98495697315
O -1.78174360392 0.0893687276358 3.49092019195
C -0.75592527053 0.900301997189 3.70384266428
C 0.275264934625 0.414021139747 4.71585189767
H 1.78196522747 -0.66986524622 3.67147527506
H 1.00162420025 1.20144495166 4.86159124611
H -0.20828548768 0.189467035725 5.66169514232
O -0.640295019237 1.92939697147 3.09837823189
H -1.69906273939 -0.731071338265 4.01469110839
N 0.951388152579 -0.773814036834 4.23674545081
